
OS:Version,
  {2c6393c5-282c-4fcf-a92b-97b061902ad1}, !- Handle
  3.3.0;                                  !- Version Identifier

OS:Building,
  {fe0abf76-f7f7-4cc5-a3ad-e991bbc87865}, !- Handle
  Building 1,                             !- Name
  ,                                       !- Building Sector Type
  0,                                      !- North Axis {deg}
  ,                                       !- Nominal Floor to Floor Height {m}
  ,                                       !- Space Type Name
  {69c53377-0f7e-49e5-8e8c-d685919dcf7b}, !- Default Construction Set Name
  ,                                       !- Default Schedule Set Name
  ,                                       !- Standards Number of Stories
  ,                                       !- Standards Number of Above Ground Stories
  ,                                       !- Standards Template
  MediumOffice;                           !- Standards Building Type

OS:Facility,
  {ac3f4db9-2a1d-4758-9e3c-e3ec44781015}; !- Handle

OS:Site,
  {e7ef7bf0-ced1-4b1d-8be5-aa21a57d5a6a}, !- Handle
  Site 1,                                 !- Name
  ,                                       !- Latitude {deg}
  ,                                       !- Longitude {deg}
  ,                                       !- Time Zone {hr}
  ,                                       !- Elevation {m}
  City;                                   !- Terrain

OS:SimulationControl,
  {e807399f-a791-456f-8676-e87057a47495}, !- Handle
  Yes,                                    !- Do Zone Sizing Calculation
  Yes,                                    !- Do System Sizing Calculation
  Yes,                                    !- Do Plant Sizing Calculation
  No,                                     !- Run Simulation for Sizing Periods
  Yes,                                    !- Run Simulation for Weather File Run Periods
  ,                                       !- Loads Convergence Tolerance Value {W}
  ,                                       !- Temperature Convergence Tolerance Value {deltaC}
  FullExteriorWithReflections;            !- Solar Distribution

OS:Sizing:Parameters,
  {04ca3f14-87a7-41b5-90ed-eec775575732}, !- Handle
  1.25,                                   !- Heating Sizing Factor
  1.15;                                   !- Cooling Sizing Factor

OS:Timestep,
  {065077f2-9307-4291-8b4d-92d44a8a6ad4}, !- Handle
  6;                                      !- Number of Timesteps per Hour

OS:ShadowCalculation,
  {90eb194b-5d50-4b14-a682-236fc8b54827}, !- Handle
  PolygonClipping,                        !- Shading Calculation Method
  Periodic,                               !- Shading Calculation Update Frequency Method
  30,                                     !- Shading Calculation Update Frequency
  15000,                                  !- Maximum Figures in Shadow Overlap Calculations
  ,                                       !- Polygon Clipping Algorithm
  512,                                    !- Pixel Counting Resolution
  ,                                       !- Sky Diffuse Modeling Algorithm
  No,                                     !- Output External Shading Calculation Results
  No,                                     !- Disable Self-Shading Within Shading Zone Groups
  No;                                     !- Disable Self-Shading From Shading Zone Groups to Other Zones

OS:HeatBalanceAlgorithm,
  {861a0c68-30a7-4811-bb4c-a2b1d35943b8}, !- Handle
  ConductionTransferFunction,             !- Algorithm
  200;                                    !- Surface Temperature Upper Limit {C}

OS:RunPeriod,
  {9942b286-cd91-4b19-b9c8-8430816e93c4}, !- Handle
  Run Period 1,                           !- Name
  1,                                      !- Begin Month
  1,                                      !- Begin Day of Month
  12,                                     !- End Month
  31,                                     !- End Day of Month
  ,                                       !- Use Weather File Holidays and Special Days
  ,                                       !- Use Weather File Daylight Saving Period
  ,                                       !- Apply Weekend Holiday Rule
  ,                                       !- Use Weather File Rain Indicators
  ,                                       !- Use Weather File Snow Indicators
  ;                                       !- Number of Times Runperiod to be Repeated

OS:LifeCycleCost:Parameters,
  {4efdaddd-5400-45eb-a33f-065ee9079b5c}, !- Handle
  ,                                       !- Analysis Type
  ,                                       !- Discounting Convention
  ,                                       !- Inflation Approach
  ,                                       !- Real Discount Rate
  ,                                       !- Nominal Discount Rate
  ,                                       !- Inflation
  ,                                       !- Base Date Month
  ,                                       !- Base Date Year
  ,                                       !- Service Date Month
  ,                                       !- Service Date Year
  ;                                       !- Length of Study Period in Years

OS:WeatherFile,
  {0018fc1e-7a2a-4e6f-a11b-57499b3263c7}, !- Handle
  Boston Logan IntL Arpt,                 !- City
  MA,                                     !- State Province Region
  USA,                                    !- Country
  TMY3,                                   !- Data Source
  725090,                                 !- WMO Number
  42.37,                                  !- Latitude {deg}
  -71.02,                                 !- Longitude {deg}
  -5,                                     !- Time Zone {hr}
  6,                                      !- Elevation {m}
  C:/Users/admin/ladybug_tools/resources/weather/USA_MA_Boston-Logan.Intl.AP.725090_TMY3/USA_MA_Boston-Logan.Intl.AP.725090_TMY3.epw, !- Url
  B65824C3,                               !- Checksum
  ,                                       !- Start Date Actual Year
  Sunday;                                 !- Start Day of Week

OS:SizingPeriod:DesignDay,
  {c10706f0-9f2f-4610-8161-2cb3425aeb89}, !- Handle
  Boston Logan IntL Arpt Ann Htg 99.6% Condns DB, !- Name
  -13.6,                                  !- Maximum Dry-Bulb Temperature {C}
  0,                                      !- Daily Dry-Bulb Temperature Range {deltaC}
  101253,                                 !- Barometric Pressure {Pa}
  7.2,                                    !- Wind Speed {m/s}
  320,                                    !- Wind Direction {deg}
  0,                                      !- Sky Clearness
  ,                                       !- Rain Indicator
  ,                                       !- Snow Indicator
  21,                                     !- Day of Month
  1,                                      !- Month
  WinterDesignDay,                        !- Day Type
  ,                                       !- Daylight Saving Time Indicator
  Wetbulb,                                !- Humidity Condition Type
  ,                                       !- Humidity Condition Day Schedule Name
  -13.6,                                  !- Wetbulb or DewPoint at Maximum Dry-Bulb {C}
  ,                                       !- Humidity Ratio at Maximum Dry-Bulb {kgWater/kgDryAir}
  ,                                       !- Enthalpy at Maximum Dry-Bulb {J/kg}
  ,                                       !- Dry-Bulb Temperature Range Modifier Type
  ,                                       !- Dry-Bulb Temperature Range Modifier Day Schedule Name
  ASHRAEClearSky;                         !- Solar Model Indicator

OS:SizingPeriod:DesignDay,
  {06b188f2-023e-46a7-9e95-ca2d176e3ae8}, !- Handle
  Boston Logan IntL Arpt Ann Hum_n 99.6% Condns DP=>MCDB, !- Name
  -12,                                    !- Maximum Dry-Bulb Temperature {C}
  0,                                      !- Daily Dry-Bulb Temperature Range {deltaC}
  101253,                                 !- Barometric Pressure {Pa}
  7.2,                                    !- Wind Speed {m/s}
  320,                                    !- Wind Direction {deg}
  0,                                      !- Sky Clearness
  ,                                       !- Rain Indicator
  ,                                       !- Snow Indicator
  21,                                     !- Day of Month
  1,                                      !- Month
  WinterDesignDay,                        !- Day Type
  ,                                       !- Daylight Saving Time Indicator
  Dewpoint,                               !- Humidity Condition Type
  ,                                       !- Humidity Condition Day Schedule Name
  -24.4,                                  !- Wetbulb or DewPoint at Maximum Dry-Bulb {C}
  ,                                       !- Humidity Ratio at Maximum Dry-Bulb {kgWater/kgDryAir}
  ,                                       !- Enthalpy at Maximum Dry-Bulb {J/kg}
  ,                                       !- Dry-Bulb Temperature Range Modifier Type
  ,                                       !- Dry-Bulb Temperature Range Modifier Day Schedule Name
  ASHRAEClearSky;                         !- Solar Model Indicator

OS:SizingPeriod:DesignDay,
  {514062ae-20e9-4da3-ae57-6b0bad09972c}, !- Handle
  Boston Logan IntL Arpt Ann Htg Wind 99.6% Condns WS=>MCDB, !- Name
  2.1,                                    !- Maximum Dry-Bulb Temperature {C}
  0,                                      !- Daily Dry-Bulb Temperature Range {deltaC}
  101253,                                 !- Barometric Pressure {Pa}
  14.1,                                   !- Wind Speed {m/s}
  320,                                    !- Wind Direction {deg}
  0,                                      !- Sky Clearness
  ,                                       !- Rain Indicator
  ,                                       !- Snow Indicator
  21,                                     !- Day of Month
  1,                                      !- Month
  WinterDesignDay,                        !- Day Type
  ,                                       !- Daylight Saving Time Indicator
  Wetbulb,                                !- Humidity Condition Type
  ,                                       !- Humidity Condition Day Schedule Name
  2.1,                                    !- Wetbulb or DewPoint at Maximum Dry-Bulb {C}
  ,                                       !- Humidity Ratio at Maximum Dry-Bulb {kgWater/kgDryAir}
  ,                                       !- Enthalpy at Maximum Dry-Bulb {J/kg}
  ,                                       !- Dry-Bulb Temperature Range Modifier Type
  ,                                       !- Dry-Bulb Temperature Range Modifier Day Schedule Name
  ASHRAEClearSky;                         !- Solar Model Indicator

OS:SizingPeriod:DesignDay,
  {2dcb1d9a-c780-4cac-8f29-39ddd0a33a01}, !- Handle
  Boston Logan IntL Arpt Ann Clg .4% Condns DB=>MWB, !- Name
  32.7,                                   !- Maximum Dry-Bulb Temperature {C}
  8.4,                                    !- Daily Dry-Bulb Temperature Range {deltaC}
  101253,                                 !- Barometric Pressure {Pa}
  6.3,                                    !- Wind Speed {m/s}
  270,                                    !- Wind Direction {deg}
  ,                                       !- Sky Clearness
  ,                                       !- Rain Indicator
  ,                                       !- Snow Indicator
  21,                                     !- Day of Month
  7,                                      !- Month
  SummerDesignDay,                        !- Day Type
  ,                                       !- Daylight Saving Time Indicator
  Wetbulb,                                !- Humidity Condition Type
  ,                                       !- Humidity Condition Day Schedule Name
  22.9,                                   !- Wetbulb or DewPoint at Maximum Dry-Bulb {C}
  ,                                       !- Humidity Ratio at Maximum Dry-Bulb {kgWater/kgDryAir}
  ,                                       !- Enthalpy at Maximum Dry-Bulb {J/kg}
  ,                                       !- Dry-Bulb Temperature Range Modifier Type
  ,                                       !- Dry-Bulb Temperature Range Modifier Day Schedule Name
  ASHRAETau,                              !- Solar Model Indicator
  ,                                       !- Beam Solar Day Schedule Name
  ,                                       !- Diffuse Solar Day Schedule Name
  0.488,                                  !- ASHRAE Clear Sky Optical Depth for Beam Irradiance {dimensionless}
  1.95;                                   !- ASHRAE Clear Sky Optical Depth for Diffuse Irradiance {dimensionless}

OS:SizingPeriod:DesignDay,
  {480c313e-fd21-4f56-94ab-7f851cf39841}, !- Handle
  Boston Logan IntL Arpt Ann Clg .4% Condns WB=>MDB, !- Name
  30.2,                                   !- Maximum Dry-Bulb Temperature {C}
  8.4,                                    !- Daily Dry-Bulb Temperature Range {deltaC}
  101253,                                 !- Barometric Pressure {Pa}
  6.3,                                    !- Wind Speed {m/s}
  270,                                    !- Wind Direction {deg}
  ,                                       !- Sky Clearness
  ,                                       !- Rain Indicator
  ,                                       !- Snow Indicator
  21,                                     !- Day of Month
  7,                                      !- Month
  SummerDesignDay,                        !- Day Type
  ,                                       !- Daylight Saving Time Indicator
  Wetbulb,                                !- Humidity Condition Type
  ,                                       !- Humidity Condition Day Schedule Name
  24.6,                                   !- Wetbulb or DewPoint at Maximum Dry-Bulb {C}
  ,                                       !- Humidity Ratio at Maximum Dry-Bulb {kgWater/kgDryAir}
  ,                                       !- Enthalpy at Maximum Dry-Bulb {J/kg}
  ,                                       !- Dry-Bulb Temperature Range Modifier Type
  ,                                       !- Dry-Bulb Temperature Range Modifier Day Schedule Name
  ASHRAETau,                              !- Solar Model Indicator
  ,                                       !- Beam Solar Day Schedule Name
  ,                                       !- Diffuse Solar Day Schedule Name
  0.488,                                  !- ASHRAE Clear Sky Optical Depth for Beam Irradiance {dimensionless}
  1.95;                                   !- ASHRAE Clear Sky Optical Depth for Diffuse Irradiance {dimensionless}

OS:SizingPeriod:DesignDay,
  {fd2f890a-9d2a-49fe-b735-b144e0ee04a5}, !- Handle
  Boston Logan IntL Arpt Ann Clg .4% Condns DP=>MDB, !- Name
  27.3,                                   !- Maximum Dry-Bulb Temperature {C}
  8.4,                                    !- Daily Dry-Bulb Temperature Range {deltaC}
  101253,                                 !- Barometric Pressure {Pa}
  6.3,                                    !- Wind Speed {m/s}
  270,                                    !- Wind Direction {deg}
  ,                                       !- Sky Clearness
  ,                                       !- Rain Indicator
  ,                                       !- Snow Indicator
  21,                                     !- Day of Month
  7,                                      !- Month
  SummerDesignDay,                        !- Day Type
  ,                                       !- Daylight Saving Time Indicator
  Dewpoint,                               !- Humidity Condition Type
  ,                                       !- Humidity Condition Day Schedule Name
  22.8,                                   !- Wetbulb or DewPoint at Maximum Dry-Bulb {C}
  ,                                       !- Humidity Ratio at Maximum Dry-Bulb {kgWater/kgDryAir}
  ,                                       !- Enthalpy at Maximum Dry-Bulb {J/kg}
  ,                                       !- Dry-Bulb Temperature Range Modifier Type
  ,                                       !- Dry-Bulb Temperature Range Modifier Day Schedule Name
  ASHRAETau,                              !- Solar Model Indicator
  ,                                       !- Beam Solar Day Schedule Name
  ,                                       !- Diffuse Solar Day Schedule Name
  0.488,                                  !- ASHRAE Clear Sky Optical Depth for Beam Irradiance {dimensionless}
  1.95;                                   !- ASHRAE Clear Sky Optical Depth for Diffuse Irradiance {dimensionless}

OS:SizingPeriod:DesignDay,
  {88a0363f-0ebe-4fc2-9b46-bb6f1af1a3a5}, !- Handle
  Boston Logan IntL Arpt Ann Clg .4% Condns Enth=>MDB, !- Name
  30.6,                                   !- Maximum Dry-Bulb Temperature {C}
  8.4,                                    !- Daily Dry-Bulb Temperature Range {deltaC}
  101253,                                 !- Barometric Pressure {Pa}
  6.3,                                    !- Wind Speed {m/s}
  270,                                    !- Wind Direction {deg}
  ,                                       !- Sky Clearness
  ,                                       !- Rain Indicator
  ,                                       !- Snow Indicator
  21,                                     !- Day of Month
  7,                                      !- Month
  SummerDesignDay,                        !- Day Type
  ,                                       !- Daylight Saving Time Indicator
  Enthalpy,                               !- Humidity Condition Type
  ,                                       !- Humidity Condition Day Schedule Name
  23,                                     !- Wetbulb or DewPoint at Maximum Dry-Bulb {C}
  ,                                       !- Humidity Ratio at Maximum Dry-Bulb {kgWater/kgDryAir}
  74100,                                  !- Enthalpy at Maximum Dry-Bulb {J/kg}
  ,                                       !- Dry-Bulb Temperature Range Modifier Type
  ,                                       !- Dry-Bulb Temperature Range Modifier Day Schedule Name
  ASHRAETau,                              !- Solar Model Indicator
  ,                                       !- Beam Solar Day Schedule Name
  ,                                       !- Diffuse Solar Day Schedule Name
  0.488,                                  !- ASHRAE Clear Sky Optical Depth for Beam Irradiance {dimensionless}
  1.95;                                   !- ASHRAE Clear Sky Optical Depth for Diffuse Irradiance {dimensionless}

OS:Site:WaterMainsTemperature,
  {6f459fec-9934-4e8e-b677-2c05501fb191}, !- Handle
  Correlation,                            !- Calculation Method
  ,                                       !- Temperature Schedule Name
  9.55,                                   !- Annual Average Outdoor Air Temperature {C}
  4;                                      !- Maximum Difference In Monthly Average Outdoor Air Temperatures {deltaC}

OS:ClimateZones,
  {9957d515-a223-494c-b29d-fac4ce8cb6f2}, !- Handle
  ASHRAE,                                 !- Climate Zone Institution Name 1
  ANSI/ASHRAE Standard 169,               !- Climate Zone Document Name 1
  2006,                                   !- Climate Zone Document Year 1
  5A;                                     !- Climate Zone Value 1

OS:Output:Variable,
  {0dd984b2-cb6a-4313-8364-72ac88ca182f}, !- Handle
  Output Variable 1,                      !- Name
  ,                                       !- Key Value
  Baseboard Electricity Energy,           !- Variable Name
  Hourly;                                 !- Reporting Frequency

OS:Output:Variable,
  {de3b1d28-95df-4226-b2e7-82db494c3dc1}, !- Handle
  Output Variable 2,                      !- Name
  ,                                       !- Key Value
  Boiler Electricity Energy,              !- Variable Name
  Hourly;                                 !- Reporting Frequency

OS:Output:Variable,
  {7bf3bb18-a7ff-4bff-9ffa-5b4440633dac}, !- Handle
  Output Variable 3,                      !- Name
  ,                                       !- Key Value
  Boiler NaturalGas Energy,               !- Variable Name
  Hourly;                                 !- Reporting Frequency

OS:Output:Variable,
  {d549b0c1-3983-41bb-aa8c-67b4ecde601e}, !- Handle
  Output Variable 4,                      !- Name
  ,                                       !- Key Value
  Chiller Electricity Energy,             !- Variable Name
  Hourly;                                 !- Reporting Frequency

OS:Output:Variable,
  {22cf96e3-de94-4cfd-8519-3255420df599}, !- Handle
  Output Variable 5,                      !- Name
  ,                                       !- Key Value
  Chiller Heater System Cooling Electricity Energy, !- Variable Name
  Hourly;                                 !- Reporting Frequency

OS:Output:Variable,
  {b251a1d6-b5d2-400b-823b-4e79e6c23366}, !- Handle
  Output Variable 6,                      !- Name
  ,                                       !- Key Value
  Chiller Heater System Heating Electricity Energy, !- Variable Name
  Hourly;                                 !- Reporting Frequency

OS:Output:Variable,
  {0a88cd1d-4d9c-43a3-9d58-3d593a852353}, !- Handle
  Output Variable 7,                      !- Name
  ,                                       !- Key Value
  Cooling Coil Electricity Energy,        !- Variable Name
  Hourly;                                 !- Reporting Frequency

OS:Output:Variable,
  {22fcb2e7-68e8-4dc4-be55-b75501ab9e39}, !- Handle
  Output Variable 8,                      !- Name
  ,                                       !- Key Value
  Cooling Coil Water Heating Electricity Energy, !- Variable Name
  Hourly;                                 !- Reporting Frequency

OS:Output:Variable,
  {dc546322-ec4c-4c75-932f-9bfe58929c55}, !- Handle
  Output Variable 9,                      !- Name
  ,                                       !- Key Value
  Cooling Tower Fan Electricity Energy,   !- Variable Name
  Hourly;                                 !- Reporting Frequency

OS:Output:Variable,
  {4ccc7a71-bc21-4c12-964b-8029013c3073}, !- Handle
  Output Variable 10,                     !- Name
  ,                                       !- Key Value
  District Cooling Chilled Water Energy,  !- Variable Name
  Hourly;                                 !- Reporting Frequency

OS:Output:Variable,
  {3f254341-a46a-44c0-a611-25782196eafe}, !- Handle
  Output Variable 11,                     !- Name
  ,                                       !- Key Value
  District Heating Hot Water Energy,      !- Variable Name
  Hourly;                                 !- Reporting Frequency

OS:Output:Variable,
  {e5a6a1c2-cd53-46c4-8c86-a530e0f849b8}, !- Handle
  Output Variable 12,                     !- Name
  ,                                       !- Key Value
  Evaporative Cooler Electricity Energy,  !- Variable Name
  Hourly;                                 !- Reporting Frequency

OS:Output:Variable,
  {0b2a3cd1-310e-4286-b727-9547bb1841e0}, !- Handle
  Output Variable 13,                     !- Name
  ,                                       !- Key Value
  Fan Electricity Energy,                 !- Variable Name
  Hourly;                                 !- Reporting Frequency

OS:Output:Variable,
  {637df759-6b0c-43a1-a2dd-a239ef81b5a4}, !- Handle
  Output Variable 14,                     !- Name
  ,                                       !- Key Value
  Heating Coil Electricity Energy,        !- Variable Name
  Hourly;                                 !- Reporting Frequency

OS:Output:Variable,
  {1c4bd353-25b7-4f0d-9984-90cba88c4359}, !- Handle
  Output Variable 15,                     !- Name
  ,                                       !- Key Value
  Heating Coil NaturalGas Energy,         !- Variable Name
  Hourly;                                 !- Reporting Frequency

OS:Output:Variable,
  {a2497786-4de6-4b3a-b3ba-211c2af8ff31}, !- Handle
  Output Variable 16,                     !- Name
  ,                                       !- Key Value
  Heating Coil Total Heating Energy,      !- Variable Name
  Hourly;                                 !- Reporting Frequency

OS:Output:Variable,
  {4d45101b-c454-452b-886e-36210e40586f}, !- Handle
  Output Variable 17,                     !- Name
  ,                                       !- Key Value
  Hot_Water_Loop_Central_Air_Source_Heat_Pump Electricity Consumption, !- Variable Name
  Hourly;                                 !- Reporting Frequency

OS:Output:Variable,
  {9005b5f4-b7ee-4a58-bdc7-fde56615070b}, !- Handle
  Output Variable 18,                     !- Name
  ,                                       !- Key Value
  Humidifier Electricity Energy,          !- Variable Name
  Hourly;                                 !- Reporting Frequency

OS:Output:Variable,
  {d81068e2-7bf5-4ef4-8b5f-542ecfd2d91e}, !- Handle
  Output Variable 19,                     !- Name
  ,                                       !- Key Value
  Pump Electricity Energy,                !- Variable Name
  Hourly;                                 !- Reporting Frequency

OS:Output:Variable,
  {d35cb73c-d2b1-4e50-b94f-648627bce748}, !- Handle
  Output Variable 20,                     !- Name
  ,                                       !- Key Value
  VRF Heat Pump Cooling Electricity Energy, !- Variable Name
  Hourly;                                 !- Reporting Frequency

OS:Output:Variable,
  {7dcf0b36-ba58-4055-869c-65396e7e42c1}, !- Handle
  Output Variable 21,                     !- Name
  ,                                       !- Key Value
  VRF Heat Pump Crankcase Heater Electricity Energy, !- Variable Name
  Hourly;                                 !- Reporting Frequency

OS:Output:Variable,
  {ef07bce9-8c57-4080-9604-b865ef1f666c}, !- Handle
  Output Variable 22,                     !- Name
  ,                                       !- Key Value
  VRF Heat Pump Defrost Electricity Energy, !- Variable Name
  Hourly;                                 !- Reporting Frequency

OS:Output:Variable,
  {27e4d390-6ef3-4da3-8abc-dea984ced98f}, !- Handle
  Output Variable 23,                     !- Name
  ,                                       !- Key Value
  VRF Heat Pump Heating Electricity Energy, !- Variable Name
  Hourly;                                 !- Reporting Frequency

OS:Output:Variable,
  {b5b45871-ce36-4d3e-8801-20eca3772c32}, !- Handle
  Output Variable 24,                     !- Name
  ,                                       !- Key Value
  Water Heater Electricity Energy,        !- Variable Name
  Hourly;                                 !- Reporting Frequency

OS:Output:Variable,
  {0a5ea281-2eff-4866-bf76-a2b006599fec}, !- Handle
  Output Variable 25,                     !- Name
  ,                                       !- Key Value
  Water Heater NaturalGas Energy,         !- Variable Name
  Hourly;                                 !- Reporting Frequency

OS:Output:Variable,
  {463fd4b0-473e-4f00-af47-3aa3d9eacdcc}, !- Handle
  Output Variable 26,                     !- Name
  ,                                       !- Key Value
  Water Use Equipment Heating Energy,     !- Variable Name
  Hourly;                                 !- Reporting Frequency

OS:Output:Variable,
  {1dba5c96-ad5a-4c89-a157-aa4797773e33}, !- Handle
  Output Variable 27,                     !- Name
  ,                                       !- Key Value
  Zone Electric Equipment Electricity Energy, !- Variable Name
  Hourly;                                 !- Reporting Frequency

OS:Output:Variable,
  {61504828-989f-47ed-9a88-a1054ff93fb1}, !- Handle
  Output Variable 28,                     !- Name
  ,                                       !- Key Value
  Zone Gas Equipment NaturalGas Energy,   !- Variable Name
  Hourly;                                 !- Reporting Frequency

OS:Output:Variable,
  {dd26cce3-072d-4a2e-af87-17dda009ba21}, !- Handle
  Output Variable 29,                     !- Name
  ,                                       !- Key Value
  Zone Ideal Loads Supply Air Total Cooling Energy, !- Variable Name
  Hourly;                                 !- Reporting Frequency

OS:Output:Variable,
  {beaa93c2-5c53-428d-91f3-06b61c663de8}, !- Handle
  Output Variable 30,                     !- Name
  ,                                       !- Key Value
  Zone Ideal Loads Supply Air Total Heating Energy, !- Variable Name
  Hourly;                                 !- Reporting Frequency

OS:Output:Variable,
  {aecc770b-3c6c-4431-ab00-db75cfc8bd4f}, !- Handle
  Output Variable 31,                     !- Name
  ,                                       !- Key Value
  Zone Lights Electricity Energy,         !- Variable Name
  Hourly;                                 !- Reporting Frequency

OS:Output:Variable,
  {3d097197-699f-42b2-b2cc-77495a1128bb}, !- Handle
  Output Variable 32,                     !- Name
  ,                                       !- Key Value
  Zone Other Equipment Lost Heat Energy,  !- Variable Name
  Hourly;                                 !- Reporting Frequency

OS:Output:Variable,
  {dc6eac7d-2754-4231-9e03-e263ac0aa1cf}, !- Handle
  Output Variable 33,                     !- Name
  ,                                       !- Key Value
  Zone Other Equipment Total Heating Energy, !- Variable Name
  Hourly;                                 !- Reporting Frequency

OS:Output:Variable,
  {f38b48f0-9d0a-42d7-9c49-de60b6ecc453}, !- Handle
  Output Variable 34,                     !- Name
  ,                                       !- Key Value
  Zone VRF Air Terminal Cooling Electricity Energy, !- Variable Name
  Hourly;                                 !- Reporting Frequency
