!-Generator IDFEditor 1.51
!-Option OriginalOrderTop

!-NOTE: All comments with '!-' are ignored by the IDFEditor and are generated automatically.
!-      Use '!' comments if they need to be retained when using the IDFEditor.

Output:Variable,
    *,                       !- Key Value
    System Node Specific Heat,  !- Variable Name
    Hourly;                  !- Reporting Frequency

Output:Variable,
    *,                       !- Key Value
    Infiltration Total Heat Loss Energy,  !- Variable Name
    Hourly;                  !- Reporting Frequency

Output:Variable,
    *,                       !- Key Value
    Infiltration Air Change Rate,  !- Variable Name
    Hourly;                  !- Reporting Frequency

Output:Variable,
    *,                       !- Key Value
    Zone Air Temperature,    !- Variable Name
    Hourly;                  !- Reporting Frequency

Output:Variable,
    *,                       !- Key Value
    Site Outdoor Air Drybulb Temperature,  !- Variable Name
    Hourly;                  !- Reporting Frequency

Output:Variable,
    *,                       !- Key Value
    Site Outdoor Air Barometric Pressure,  !- Variable Name
    Hourly;                  !- Reporting Frequency

Version,
    22.1;                    !- Version Identifier

SimulationControl,
    Yes,                     !- Do Zone Sizing Calculation
    Yes,                     !- Do System Sizing Calculation
    Yes,                     !- Do Plant Sizing Calculation
    No,                      !- Run Simulation for Sizing Periods
    Yes,                     !- Run Simulation for Weather File Run Periods
    No,                      !- Do HVAC Sizing Simulation for Sizing Periods
    ;                        !- Maximum Number of HVAC Sizing Simulation Passes

Building,
    Building 1,              !- Name
    0,                       !- North Axis {deg}
    City,                    !- Terrain
    ,                        !- Loads Convergence Tolerance Value {W}
    ,                        !- Temperature Convergence Tolerance Value {deltaC}
    FullExteriorWithReflections,  !- Solar Distribution
    ,                        !- Maximum Number of Warmup Days
    ;                        !- Minimum Number of Warmup Days

ShadowCalculation,
    PolygonClipping,         !- Shading Calculation Method
    Periodic,                !- Shading Calculation Update Frequency Method
    30,                      !- Shading Calculation Update Frequency
    15000,                   !- Maximum Figures in Shadow Overlap Calculations
    SutherlandHodgman,       !- Polygon Clipping Algorithm
    512,                     !- Pixel Counting Resolution
    SimpleSkyDiffuseModeling,!- Sky Diffuse Modeling Algorithm
    No,                      !- Output External Shading Calculation Results
    No,                      !- Disable Self-Shading Within Shading Zone Groups
    No;                      !- Disable Self-Shading From Shading Zone Groups to Other Zones

HeatBalanceAlgorithm,
    ConductionTransferFunction,  !- Algorithm
    200;                     !- Surface Temperature Upper Limit {C}

Timestep,
    6;                       !- Number of Timesteps per Hour

Site:Location,
    Site 1,                  !- Name
    0,                       !- Latitude {deg}
    0,                       !- Longitude {deg}
    0,                       !- Time Zone {hr}
    0;                       !- Elevation {m}

SizingPeriod:DesignDay,
    Boston Logan IntL Arpt Ann Clg .4% Condns DB=>MWB,  !- Name
    7,                       !- Month
    21,                      !- Day of Month
    SummerDesignDay,         !- Day Type
    32.7,                    !- Maximum Dry-Bulb Temperature {C}
    8.4,                     !- Daily Dry-Bulb Temperature Range {deltaC}
    DefaultMultipliers,      !- Dry-Bulb Temperature Range Modifier Type
    ,                        !- Dry-Bulb Temperature Range Modifier Day Schedule Name
    Wetbulb,                 !- Humidity Condition Type
    22.9,                    !- Wetbulb or DewPoint at Maximum Dry-Bulb {C}
    ,                        !- Humidity Condition Day Schedule Name
    ,                        !- Humidity Ratio at Maximum Dry-Bulb {kgWater/kgDryAir}
    ,                        !- Enthalpy at Maximum Dry-Bulb {J/kg}
    ,                        !- Daily Wet-Bulb Temperature Range {deltaC}
    101253,                  !- Barometric Pressure {Pa}
    6.3,                     !- Wind Speed {m/s}
    270,                     !- Wind Direction {deg}
    No,                      !- Rain Indicator
    No,                      !- Snow Indicator
    No,                      !- Daylight Saving Time Indicator
    ASHRAETau,               !- Solar Model Indicator
    ,                        !- Beam Solar Day Schedule Name
    ,                        !- Diffuse Solar Day Schedule Name
    0.488,                   !- ASHRAE Clear Sky Optical Depth for Beam Irradiance (taub) {dimensionless}
    1.95,                    !- ASHRAE Clear Sky Optical Depth for Diffuse Irradiance (taud) {dimensionless}
    ,                        !- Sky Clearness
    ,                        !- Maximum Number Warmup Days
    FullResetAtBeginEnvironment;  !- Begin Environment Reset Mode

SizingPeriod:DesignDay,
    Boston Logan IntL Arpt Ann Clg .4% Condns DP=>MDB,  !- Name
    7,                       !- Month
    21,                      !- Day of Month
    SummerDesignDay,         !- Day Type
    27.3,                    !- Maximum Dry-Bulb Temperature {C}
    8.4,                     !- Daily Dry-Bulb Temperature Range {deltaC}
    DefaultMultipliers,      !- Dry-Bulb Temperature Range Modifier Type
    ,                        !- Dry-Bulb Temperature Range Modifier Day Schedule Name
    Dewpoint,                !- Humidity Condition Type
    22.8,                    !- Wetbulb or DewPoint at Maximum Dry-Bulb {C}
    ,                        !- Humidity Condition Day Schedule Name
    ,                        !- Humidity Ratio at Maximum Dry-Bulb {kgWater/kgDryAir}
    ,                        !- Enthalpy at Maximum Dry-Bulb {J/kg}
    ,                        !- Daily Wet-Bulb Temperature Range {deltaC}
    101253,                  !- Barometric Pressure {Pa}
    6.3,                     !- Wind Speed {m/s}
    270,                     !- Wind Direction {deg}
    No,                      !- Rain Indicator
    No,                      !- Snow Indicator
    No,                      !- Daylight Saving Time Indicator
    ASHRAETau,               !- Solar Model Indicator
    ,                        !- Beam Solar Day Schedule Name
    ,                        !- Diffuse Solar Day Schedule Name
    0.488,                   !- ASHRAE Clear Sky Optical Depth for Beam Irradiance (taub) {dimensionless}
    1.95,                    !- ASHRAE Clear Sky Optical Depth for Diffuse Irradiance (taud) {dimensionless}
    ,                        !- Sky Clearness
    ,                        !- Maximum Number Warmup Days
    FullResetAtBeginEnvironment;  !- Begin Environment Reset Mode

SizingPeriod:DesignDay,
    Boston Logan IntL Arpt Ann Clg .4% Condns Enth=>MDB,  !- Name
    7,                       !- Month
    21,                      !- Day of Month
    SummerDesignDay,         !- Day Type
    30.6,                    !- Maximum Dry-Bulb Temperature {C}
    8.4,                     !- Daily Dry-Bulb Temperature Range {deltaC}
    DefaultMultipliers,      !- Dry-Bulb Temperature Range Modifier Type
    ,                        !- Dry-Bulb Temperature Range Modifier Day Schedule Name
    Enthalpy,                !- Humidity Condition Type
    ,                        !- Wetbulb or DewPoint at Maximum Dry-Bulb {C}
    ,                        !- Humidity Condition Day Schedule Name
    ,                        !- Humidity Ratio at Maximum Dry-Bulb {kgWater/kgDryAir}
    74100,                   !- Enthalpy at Maximum Dry-Bulb {J/kg}
    ,                        !- Daily Wet-Bulb Temperature Range {deltaC}
    101253,                  !- Barometric Pressure {Pa}
    6.3,                     !- Wind Speed {m/s}
    270,                     !- Wind Direction {deg}
    No,                      !- Rain Indicator
    No,                      !- Snow Indicator
    No,                      !- Daylight Saving Time Indicator
    ASHRAETau,               !- Solar Model Indicator
    ,                        !- Beam Solar Day Schedule Name
    ,                        !- Diffuse Solar Day Schedule Name
    0.488,                   !- ASHRAE Clear Sky Optical Depth for Beam Irradiance (taub) {dimensionless}
    1.95,                    !- ASHRAE Clear Sky Optical Depth for Diffuse Irradiance (taud) {dimensionless}
    ,                        !- Sky Clearness
    ,                        !- Maximum Number Warmup Days
    FullResetAtBeginEnvironment;  !- Begin Environment Reset Mode

SizingPeriod:DesignDay,
    Boston Logan IntL Arpt Ann Clg .4% Condns WB=>MDB,  !- Name
    7,                       !- Month
    21,                      !- Day of Month
    SummerDesignDay,         !- Day Type
    30.2,                    !- Maximum Dry-Bulb Temperature {C}
    8.4,                     !- Daily Dry-Bulb Temperature Range {deltaC}
    DefaultMultipliers,      !- Dry-Bulb Temperature Range Modifier Type
    ,                        !- Dry-Bulb Temperature Range Modifier Day Schedule Name
    Wetbulb,                 !- Humidity Condition Type
    24.6,                    !- Wetbulb or DewPoint at Maximum Dry-Bulb {C}
    ,                        !- Humidity Condition Day Schedule Name
    ,                        !- Humidity Ratio at Maximum Dry-Bulb {kgWater/kgDryAir}
    ,                        !- Enthalpy at Maximum Dry-Bulb {J/kg}
    ,                        !- Daily Wet-Bulb Temperature Range {deltaC}
    101253,                  !- Barometric Pressure {Pa}
    6.3,                     !- Wind Speed {m/s}
    270,                     !- Wind Direction {deg}
    No,                      !- Rain Indicator
    No,                      !- Snow Indicator
    No,                      !- Daylight Saving Time Indicator
    ASHRAETau,               !- Solar Model Indicator
    ,                        !- Beam Solar Day Schedule Name
    ,                        !- Diffuse Solar Day Schedule Name
    0.488,                   !- ASHRAE Clear Sky Optical Depth for Beam Irradiance (taub) {dimensionless}
    1.95,                    !- ASHRAE Clear Sky Optical Depth for Diffuse Irradiance (taud) {dimensionless}
    ,                        !- Sky Clearness
    ,                        !- Maximum Number Warmup Days
    FullResetAtBeginEnvironment;  !- Begin Environment Reset Mode

SizingPeriod:DesignDay,
    Boston Logan IntL Arpt Ann Htg 99.6% Condns DB,  !- Name
    1,                       !- Month
    21,                      !- Day of Month
    WinterDesignDay,         !- Day Type
    -13.6,                   !- Maximum Dry-Bulb Temperature {C}
    0,                       !- Daily Dry-Bulb Temperature Range {deltaC}
    DefaultMultipliers,      !- Dry-Bulb Temperature Range Modifier Type
    ,                        !- Dry-Bulb Temperature Range Modifier Day Schedule Name
    Wetbulb,                 !- Humidity Condition Type
    -13.6,                   !- Wetbulb or DewPoint at Maximum Dry-Bulb {C}
    ,                        !- Humidity Condition Day Schedule Name
    ,                        !- Humidity Ratio at Maximum Dry-Bulb {kgWater/kgDryAir}
    ,                        !- Enthalpy at Maximum Dry-Bulb {J/kg}
    ,                        !- Daily Wet-Bulb Temperature Range {deltaC}
    101253,                  !- Barometric Pressure {Pa}
    7.2,                     !- Wind Speed {m/s}
    320,                     !- Wind Direction {deg}
    No,                      !- Rain Indicator
    No,                      !- Snow Indicator
    No,                      !- Daylight Saving Time Indicator
    ASHRAEClearSky,          !- Solar Model Indicator
    ,                        !- Beam Solar Day Schedule Name
    ,                        !- Diffuse Solar Day Schedule Name
    ,                        !- ASHRAE Clear Sky Optical Depth for Beam Irradiance (taub) {dimensionless}
    ,                        !- ASHRAE Clear Sky Optical Depth for Diffuse Irradiance (taud) {dimensionless}
    0,                       !- Sky Clearness
    ,                        !- Maximum Number Warmup Days
    FullResetAtBeginEnvironment;  !- Begin Environment Reset Mode

SizingPeriod:DesignDay,
    Boston Logan IntL Arpt Ann Htg Wind 99.6% Condns WS=>MCDB,  !- Name
    1,                       !- Month
    21,                      !- Day of Month
    WinterDesignDay,         !- Day Type
    2.1,                     !- Maximum Dry-Bulb Temperature {C}
    0,                       !- Daily Dry-Bulb Temperature Range {deltaC}
    DefaultMultipliers,      !- Dry-Bulb Temperature Range Modifier Type
    ,                        !- Dry-Bulb Temperature Range Modifier Day Schedule Name
    Wetbulb,                 !- Humidity Condition Type
    2.1,                     !- Wetbulb or DewPoint at Maximum Dry-Bulb {C}
    ,                        !- Humidity Condition Day Schedule Name
    ,                        !- Humidity Ratio at Maximum Dry-Bulb {kgWater/kgDryAir}
    ,                        !- Enthalpy at Maximum Dry-Bulb {J/kg}
    ,                        !- Daily Wet-Bulb Temperature Range {deltaC}
    101253,                  !- Barometric Pressure {Pa}
    14.1,                    !- Wind Speed {m/s}
    320,                     !- Wind Direction {deg}
    No,                      !- Rain Indicator
    No,                      !- Snow Indicator
    No,                      !- Daylight Saving Time Indicator
    ASHRAEClearSky,          !- Solar Model Indicator
    ,                        !- Beam Solar Day Schedule Name
    ,                        !- Diffuse Solar Day Schedule Name
    ,                        !- ASHRAE Clear Sky Optical Depth for Beam Irradiance (taub) {dimensionless}
    ,                        !- ASHRAE Clear Sky Optical Depth for Diffuse Irradiance (taud) {dimensionless}
    0,                       !- Sky Clearness
    ,                        !- Maximum Number Warmup Days
    FullResetAtBeginEnvironment;  !- Begin Environment Reset Mode

SizingPeriod:DesignDay,
    Boston Logan IntL Arpt Ann Hum_n 99.6% Condns DP=>MCDB,  !- Name
    1,                       !- Month
    21,                      !- Day of Month
    WinterDesignDay,         !- Day Type
    -12,                     !- Maximum Dry-Bulb Temperature {C}
    0,                       !- Daily Dry-Bulb Temperature Range {deltaC}
    DefaultMultipliers,      !- Dry-Bulb Temperature Range Modifier Type
    ,                        !- Dry-Bulb Temperature Range Modifier Day Schedule Name
    Dewpoint,                !- Humidity Condition Type
    -24.4,                   !- Wetbulb or DewPoint at Maximum Dry-Bulb {C}
    ,                        !- Humidity Condition Day Schedule Name
    ,                        !- Humidity Ratio at Maximum Dry-Bulb {kgWater/kgDryAir}
    ,                        !- Enthalpy at Maximum Dry-Bulb {J/kg}
    ,                        !- Daily Wet-Bulb Temperature Range {deltaC}
    101253,                  !- Barometric Pressure {Pa}
    7.2,                     !- Wind Speed {m/s}
    320,                     !- Wind Direction {deg}
    No,                      !- Rain Indicator
    No,                      !- Snow Indicator
    No,                      !- Daylight Saving Time Indicator
    ASHRAEClearSky,          !- Solar Model Indicator
    ,                        !- Beam Solar Day Schedule Name
    ,                        !- Diffuse Solar Day Schedule Name
    ,                        !- ASHRAE Clear Sky Optical Depth for Beam Irradiance (taub) {dimensionless}
    ,                        !- ASHRAE Clear Sky Optical Depth for Diffuse Irradiance (taud) {dimensionless}
    0,                       !- Sky Clearness
    ,                        !- Maximum Number Warmup Days
    FullResetAtBeginEnvironment;  !- Begin Environment Reset Mode

RunPeriod,
    Run Period 1,            !- Name
    1,                       !- Begin Month
    1,                       !- Begin Day of Month
    2006,                    !- Begin Year
    1,                       !- End Month
    1,                       !- End Day of Month
    2006,                    !- End Year
    Sunday,                  !- Day of Week for Start Day
    No,                      !- Use Weather File Holidays and Special Days
    No,                      !- Use Weather File Daylight Saving Period
    No,                      !- Apply Weekend Holiday Rule
    Yes,                     !- Use Weather File Rain Indicators
    Yes;                     !- Use Weather File Snow Indicators

Site:WaterMainsTemperature,
    Correlation,             !- Calculation Method
    ,                        !- Temperature Schedule Name
    9.55,                    !- Annual Average Outdoor Air Temperature {C}
    4;                       !- Maximum Difference In Monthly Average Outdoor Air Temperatures {deltaC}

ScheduleTypeLimits,
    OfficeShoeBox_bdc533de Thermostat Schedule Type Limits,  !- Name
    0,                       !- Lower Limit Value
    4,                       !- Upper Limit Value
    DISCRETE;                !- Numeric Type

ScheduleTypeLimits,
    Temperature,             !- Name
    -273.15,                 !- Lower Limit Value
    ,                        !- Upper Limit Value
    Continuous,              !- Numeric Type
    temperature;             !- Unit Type

ScheduleTypeLimits,
    Activity Level,          !- Name
    0,                       !- Lower Limit Value
    ,                        !- Upper Limit Value
    Continuous,              !- Numeric Type
    activitylevel;           !- Unit Type

ScheduleTypeLimits,
    Fractional,              !- Name
    0,                       !- Lower Limit Value
    1,                       !- Upper Limit Value
    Continuous,              !- Numeric Type
    dimensionless;           !- Unit Type

Schedule:Day:Interval,
    OfficeLarge HTGSETP_SCH_YES_OPTIMUM_Default,  !- Name
    Temperature,             !- Schedule Type Limits Name
    No,                      !- Interpolate to Timestep
    24:00,                   !- Time 1 {hh:mm}
    15.6;                    !- Value Until Time 1

Schedule:Day:Interval,
    Schedule Day 11,         !- Name
    Temperature,             !- Schedule Type Limits Name
    No,                      !- Interpolate to Timestep
    04:00,                   !- Time 1 {hh:mm}
    15.6,                    !- Value Until Time 1
    05:00,                   !- Time 2 {hh:mm}
    17.8,                    !- Value Until Time 2
    06:00,                   !- Time 3 {hh:mm}
    20,                      !- Value Until Time 3
    22:00,                   !- Time 4 {hh:mm}
    21,                      !- Value Until Time 4
    24:00,                   !- Time 5 {hh:mm}
    15.6;                    !- Value Until Time 5

Schedule:Day:Interval,
    Schedule Day 10,         !- Name
    Temperature,             !- Schedule Type Limits Name
    No,                      !- Interpolate to Timestep
    04:00,                   !- Time 1 {hh:mm}
    15.6,                    !- Value Until Time 1
    05:00,                   !- Time 2 {hh:mm}
    17.8,                    !- Value Until Time 2
    06:00,                   !- Time 3 {hh:mm}
    20,                      !- Value Until Time 3
    17:00,                   !- Time 4 {hh:mm}
    21,                      !- Value Until Time 4
    24:00,                   !- Time 5 {hh:mm}
    15.6;                    !- Value Until Time 5

Schedule:Day:Interval,
    OfficeLarge HTGSETP_SCH_YES_OPTIMUM_SmrDsn 1,  !- Name
    Temperature,             !- Schedule Type Limits Name
    No,                      !- Interpolate to Timestep
    24:00,                   !- Time 1 {hh:mm}
    15.6;                    !- Value Until Time 1

Schedule:Day:Interval,
    OfficeLarge HTGSETP_SCH_YES_OPTIMUM_WntrDsn 1,  !- Name
    Temperature,             !- Schedule Type Limits Name
    No,                      !- Interpolate to Timestep
    05:00,                   !- Time 1 {hh:mm}
    15.6,                    !- Value Until Time 1
    06:00,                   !- Time 2 {hh:mm}
    17.6,                    !- Value Until Time 2
    07:00,                   !- Time 3 {hh:mm}
    19.6,                    !- Value Until Time 3
    22:00,                   !- Time 4 {hh:mm}
    21,                      !- Value Until Time 4
    24:00,                   !- Time 5 {hh:mm}
    15.6;                    !- Value Until Time 5

Schedule:Day:Interval,
    OfficeLarge CLGSETP_SCH_NO_SETBACK_Default,  !- Name
    Temperature,             !- Schedule Type Limits Name
    No,                      !- Interpolate to Timestep
    24:00,                   !- Time 1 {hh:mm}
    24;                      !- Value Until Time 1

Schedule:Day:Interval,
    Schedule Day 3,          !- Name
    Temperature,             !- Schedule Type Limits Name
    No,                      !- Interpolate to Timestep
    24:00,                   !- Time 1 {hh:mm}
    24;                      !- Value Until Time 1

Schedule:Day:Interval,
    OfficeLarge CLGSETP_SCH_NO_SETBACK_SmrDsn 1,  !- Name
    Temperature,             !- Schedule Type Limits Name
    No,                      !- Interpolate to Timestep
    05:00,                   !- Time 1 {hh:mm}
    26.7,                    !- Value Until Time 1
    06:00,                   !- Time 2 {hh:mm}
    25.7,                    !- Value Until Time 2
    07:00,                   !- Time 3 {hh:mm}
    25,                      !- Value Until Time 3
    22:00,                   !- Time 4 {hh:mm}
    24,                      !- Value Until Time 4
    24:00,                   !- Time 5 {hh:mm}
    26.7;                    !- Value Until Time 5

Schedule:Day:Interval,
    OfficeLarge CLGSETP_SCH_NO_SETBACK_WntrDsn 1,  !- Name
    Temperature,             !- Schedule Type Limits Name
    No,                      !- Interpolate to Timestep
    24:00,                   !- Time 1 {hh:mm}
    24;                      !- Value Until Time 1

Schedule:Day:Interval,
    Always On_Day Schedule,  !- Name
    Fractional,              !- Schedule Type Limits Name
    No,                      !- Interpolate to Timestep
    24:00,                   !- Time 1 {hh:mm}
    1;                       !- Value Until Time 1

Schedule:Day:Interval,
    OfficeLarge BLDG_EQUIP_SCH_Default,  !- Name
    Fractional,              !- Schedule Type Limits Name
    No,                      !- Interpolate to Timestep
    24:00,                   !- Time 1 {hh:mm}
    0.3;                     !- Value Until Time 1

Schedule:Day:Interval,
    OfficeLarge BLDG_EQUIP_SCH_Sat,  !- Name
    Fractional,              !- Schedule Type Limits Name
    No,                      !- Interpolate to Timestep
    06:00,                   !- Time 1 {hh:mm}
    0.3,                     !- Value Until Time 1
    08:00,                   !- Time 2 {hh:mm}
    0.4,                     !- Value Until Time 2
    12:00,                   !- Time 3 {hh:mm}
    0.5,                     !- Value Until Time 3
    17:00,                   !- Time 4 {hh:mm}
    0.35,                    !- Value Until Time 4
    24:00,                   !- Time 5 {hh:mm}
    0.3;                     !- Value Until Time 5

Schedule:Day:Interval,
    OfficeLarge BLDG_EQUIP_SCH_SmrDsn,  !- Name
    Fractional,              !- Schedule Type Limits Name
    No,                      !- Interpolate to Timestep
    24:00,                   !- Time 1 {hh:mm}
    1;                       !- Value Until Time 1

Schedule:Day:Interval,
    OfficeLarge BLDG_EQUIP_SCH_SmrDsn 1,  !- Name
    Fractional,              !- Schedule Type Limits Name
    No,                      !- Interpolate to Timestep
    24:00,                   !- Time 1 {hh:mm}
    1;                       !- Value Until Time 1

Schedule:Day:Interval,
    OfficeLarge BLDG_EQUIP_SCH_Wkdy,  !- Name
    Fractional,              !- Schedule Type Limits Name
    No,                      !- Interpolate to Timestep
    08:00,                   !- Time 1 {hh:mm}
    0.4,                     !- Value Until Time 1
    12:00,                   !- Time 2 {hh:mm}
    0.9,                     !- Value Until Time 2
    13:00,                   !- Time 3 {hh:mm}
    0.8,                     !- Value Until Time 3
    17:00,                   !- Time 4 {hh:mm}
    0.9,                     !- Value Until Time 4
    18:00,                   !- Time 5 {hh:mm}
    0.5,                     !- Value Until Time 5
    24:00,                   !- Time 6 {hh:mm}
    0.4;                     !- Value Until Time 6

Schedule:Day:Interval,
    OfficeLarge BLDG_EQUIP_SCH_WntrDsn,  !- Name
    Fractional,              !- Schedule Type Limits Name
    No,                      !- Interpolate to Timestep
    24:00,                   !- Time 1 {hh:mm}
    0;                       !- Value Until Time 1

Schedule:Day:Interval,
    OfficeLarge BLDG_EQUIP_SCH_WntrDsn 1,  !- Name
    Fractional,              !- Schedule Type Limits Name
    No,                      !- Interpolate to Timestep
    24:00,                   !- Time 1 {hh:mm}
    0;                       !- Value Until Time 1

Schedule:Day:Interval,
    OfficeLarge BLDG_LIGHT_SCH_2013_Default,  !- Name
    Fractional,              !- Schedule Type Limits Name
    No,                      !- Interpolate to Timestep
    05:00,                   !- Time 1 {hh:mm}
    0.05,                    !- Value Until Time 1
    18:00,                   !- Time 2 {hh:mm}
    0.045280057,             !- Value Until Time 2
    24:00,                   !- Time 3 {hh:mm}
    0.05;                    !- Value Until Time 3

Schedule:Day:Interval,
    OfficeLarge BLDG_LIGHT_SCH_2013_Sat,  !- Name
    Fractional,              !- Schedule Type Limits Name
    No,                      !- Interpolate to Timestep
    06:00,                   !- Time 1 {hh:mm}
    0.05,                    !- Value Until Time 1
    08:00,                   !- Time 2 {hh:mm}
    0.090560114,             !- Value Until Time 2
    12:00,                   !- Time 3 {hh:mm}
    0.271680342,             !- Value Until Time 3
    17:00,                   !- Time 4 {hh:mm}
    0.135840171,             !- Value Until Time 4
    19:00,                   !- Time 5 {hh:mm}
    0.045280057,             !- Value Until Time 5
    24:00,                   !- Time 6 {hh:mm}
    0.05;                    !- Value Until Time 6

Schedule:Day:Interval,
    OfficeLarge BLDG_LIGHT_SCH_2013_SmrDsn,  !- Name
    Fractional,              !- Schedule Type Limits Name
    No,                      !- Interpolate to Timestep
    24:00,                   !- Time 1 {hh:mm}
    1;                       !- Value Until Time 1

Schedule:Day:Interval,
    OfficeLarge BLDG_LIGHT_SCH_2013_SmrDsn 1,  !- Name
    Fractional,              !- Schedule Type Limits Name
    No,                      !- Interpolate to Timestep
    24:00,                   !- Time 1 {hh:mm}
    1;                       !- Value Until Time 1

Schedule:Day:Interval,
    OfficeLarge BLDG_LIGHT_SCH_2013_Wkdy,  !- Name
    Fractional,              !- Schedule Type Limits Name
    No,                      !- Interpolate to Timestep
    05:00,                   !- Time 1 {hh:mm}
    0.05,                    !- Value Until Time 1
    06:00,                   !- Time 2 {hh:mm}
    0.1,                     !- Value Until Time 2
    07:00,                   !- Time 3 {hh:mm}
    0.090560114,             !- Value Until Time 3
    08:00,                   !- Time 4 {hh:mm}
    0.271680342,             !- Value Until Time 4
    17:00,                   !- Time 5 {hh:mm}
    0.815041026,             !- Value Until Time 5
    18:00,                   !- Time 6 {hh:mm}
    0.45280057,              !- Value Until Time 6
    20:00,                   !- Time 7 {hh:mm}
    0.271680342,             !- Value Until Time 7
    22:00,                   !- Time 8 {hh:mm}
    0.181120228,             !- Value Until Time 8
    23:00,                   !- Time 9 {hh:mm}
    0.090560114,             !- Value Until Time 9
    24:00,                   !- Time 10 {hh:mm}
    0.045280057;             !- Value Until Time 10

Schedule:Day:Interval,
    OfficeLarge BLDG_LIGHT_SCH_2013_WntrDsn,  !- Name
    Fractional,              !- Schedule Type Limits Name
    No,                      !- Interpolate to Timestep
    24:00,                   !- Time 1 {hh:mm}
    0;                       !- Value Until Time 1

Schedule:Day:Interval,
    OfficeLarge BLDG_LIGHT_SCH_2013_WntrDsn 1,  !- Name
    Fractional,              !- Schedule Type Limits Name
    No,                      !- Interpolate to Timestep
    24:00,                   !- Time 1 {hh:mm}
    0;                       !- Value Until Time 1

Schedule:Day:Interval,
    OfficeLarge BLDG_OCC_SCH_Default,  !- Name
    Fractional,              !- Schedule Type Limits Name
    No,                      !- Interpolate to Timestep
    06:00,                   !- Time 1 {hh:mm}
    0,                       !- Value Until Time 1